
OS:Version,
  {175d66c6-92ac-46e2-b666-ca4057e4f802}, !- Handle
  2.4.0;                                  !- Version Identifier

OS:ClimateZones,
  {8a3ac41c-57d4-48e4-a48e-1f232e262211}, !- Handle
  ,                                       !- Active Institution
  ,                                       !- Active Year
  ASHRAE,                                 !- Climate Zone Institution Name 1
  ANSI/ASHRAE Standard 169,               !- Climate Zone Document Name 1
  2006,                                   !- Climate Zone Document Year 1
  ,                                       !- Climate Zone Value 1
  CEC,                                    !- Climate Zone Institution Name 2
  California Climate Zone Descriptions,   !- Climate Zone Document Name 2
  1995,                                   !- Climate Zone Document Year 2
  ;                                       !- Climate Zone Value 2

OS:LifeCycleCost:Parameters,
  {1d4d0f18-e6dd-45c8-896c-f4f2a89e6ae5}, !- Handle
  FEMP,                                   !- Analysis Type
  ,                                       !- Discounting Convention
  ,                                       !- Inflation Approach
  0.03,                                   !- Real Discount Rate
  ,                                       !- Nominal Discount Rate
  ,                                       !- Inflation
  ,                                       !- Base Date Month
  ,                                       !- Base Date Year
  ,                                       !- Service Date Month
  ,                                       !- Service Date Year
  ,                                       !- Length of Study Period in Years
  ,                                       !- Tax Rate
  ,                                       !- Depreciation Method
  Yes,                                    !- Use NIST Fuel Escalation Rates
  ,                                       !- NIST Region
  ,                                       !- NIST Sector
  ,                                       !- Electricity Inflation
  ,                                       !- NaturalGas Inflation
  ,                                       !- Steam Inflation
  ,                                       !- Gasoline Inflation
  ,                                       !- Diesel Inflation
  ,                                       !- Coal Inflation
  ,                                       !- FuelOil1 Inflation
  ,                                       !- FuelOil2 Inflation
  ,                                       !- Propane Inflation
  ;                                       !- Water Inflation

OS:YearDescription,
  {c1349a5a-d7e1-4ed9-8e5b-24480649c25c}, !- Handle
  2009,                                   !- Calendar Year
  ,                                       !- Day of Week for Start Day
  ;                                       !- Is Leap Year

OS:RadianceParameters,
  {8297fd56-36de-4b79-a182-b7636f4ae3e3}, !- Handle
  1,                                      !- Accumulated Rays per Record
  0,                                      !- Direct Threshold
  1,                                      !- Direct Certainty
  1,                                      !- Direct Jitter
  1,                                      !- Direct Pretest
  6,                                      !- Ambient Bounces VMX
  2,                                      !- Ambient Bounces DMX
  4050,                                   !- Ambient Divisions VMX
  512,                                    !- Ambient Divisions DMX
  256,                                    !- Ambient Supersamples
  0.001,                                  !- Limit Weight VMX
  0.001,                                  !- Limit Weight DMX
  500,                                    !- Klems Sampling Density
  146;                                    !- Sky Discretization Resolution

OS:SimulationControl,
  {7c57f4fc-548f-44e7-a438-1feca6a75629}, !- Handle
  Yes,                                    !- Do Zone Sizing Calculation
  Yes,                                    !- Do System Sizing Calculation
  Yes,                                    !- Do Plant Sizing Calculation
  ,                                       !- Run Simulation for Sizing Periods
  Yes;                                    !- Run Simulation for Weather File Run Periods

OS:Sizing:Parameters,
  {ee365675-827e-489e-9a24-0f596988dec4}, !- Handle
  1.25,                                   !- Heating Sizing Factor
  1.15;                                   !- Cooling Sizing Factor

OS:ProgramControl,
  {8a7b938e-cdcb-40af-82b1-79c267c36bae}, !- Handle
  3;                                      !- Number of Threads Allowed

OS:Timestep,
  {31824a36-2f0f-4919-a534-cdb00e20d2e0}, !- Handle
  12;                                     !- Number of Timesteps per Hour

OS:OutputControl:ReportingTolerances,
  {275082a5-6cfd-4756-972e-8810ab253e29}; !- Handle

OS:ConvergenceLimits,
  {fcca1605-8471-4f2f-a485-a59582311771}; !- Handle

OS:ShadowCalculation,
  {d875de65-75c7-4d9d-883e-07bd79421b67}, !- Handle
  7,                                      !- Calculation Frequency
  200000,                                 !- Maximum Figures in Shadow Overlap Calculations
  SutherlandHodgman;                      !- Polygon Clipping Algorithm

OS:SurfaceConvectionAlgorithm:Inside,
  {5add9a33-b760-4e82-a0f9-3ae0e369b9c4}, !- Handle
  TARP;                                   !- Algorithm

OS:SurfaceConvectionAlgorithm:Outside,
  {0257be16-14fc-418e-bc73-178201ccc4ec}, !- Handle
  DOE-2;                                  !- Algorithm

OS:HeatBalanceAlgorithm,
  {5a22c4c4-a6a6-4769-b0a8-f79498f98a6d}, !- Handle
  ConductionTransferFunction,             !- Algorithm
  200;                                    !- Surface Temperature Upper Limit {C}

OS:ZoneAirHeatBalanceAlgorithm,
  {24c912f8-6f7f-4792-8ea0-a8d47b3c41a1}, !- Handle
  AnalyticalSolution;                     !- Algorithm

OS:ZoneAirContaminantBalance,
  {07e7d420-4b9b-4760-8a70-01b36aa6074f}; !- Handle

OS:ZoneCapacitanceMultiplier:ResearchSpecial,
  {91056672-db13-4057-9cb7-7ac44d24bfc5}, !- Handle
  ,                                       !- Temperature Capacity Multiplier
  ,                                       !- Humidity Capacity Multiplier
  ;                                       !- Carbon Dioxide Capacity Multiplier

OS:RunPeriod,
  {17c33f47-c9b9-463a-84bc-12596f349148}, !- Handle
  Run Period 1,                           !- Name
  1,                                      !- Begin Month
  1,                                      !- Begin Day of Month
  12,                                     !- End Month
  31,                                     !- End Day of Month
  ,                                       !- Use Weather File Holidays and Special Days
  ,                                       !- Use Weather File Daylight Saving Period
  ,                                       !- Apply Weekend Holiday Rule
  ,                                       !- Use Weather File Rain Indicators
  ,                                       !- Use Weather File Snow Indicators
  ;                                       !- Number of Times Runperiod to be Repeated

OS:Building,
  {e0ce3521-4e53-4eca-8017-2f1c8dec2b50}, !- Handle
  Carmelis,                               !- Name
  Residential,                            !- Building Sector Type
  0.954561202689376,                      !- North Axis {deg}
  ,                                       !- Nominal Floor to Floor Height {m}
  ,                                       !- Space Type Name
  ,                                       !- Default Construction Set Name
  ,                                       !- Default Schedule Set Name
  ,                                       !- Standards Number of Stories
  ,                                       !- Standards Number of Above Ground Stories
  ,                                       !- Standards Building Type
  ,                                       !- Standards Number of Living Units
  ,                                       !- Relocatable
  ;                                       !- Nominal Floor to Ceiling Height {m}

OS:Facility,
  {b6e6be84-f909-42a5-9deb-ef70c0296721}; !- Handle

OS:Site,
  {f38b0e3c-04e1-4822-940e-9b46c436222c}, !- Handle
  Tel Aviv-Bet Dagan,                     !- Name
  32,                                     !- Latitude {deg}
  34.82,                                  !- Longitude {deg}
  2,                                      !- Time Zone {hr}
  35,                                     !- Elevation {m}
  ;                                       !- Terrain

OS:Rendering:Color,
  {100447ca-d999-48c1-9f4a-632eb2ce82b4}, !- Handle
  Rendering Color 1,                      !- Name
  169,                                    !- Rendering Red Value
  31,                                     !- Rendering Green Value
  31;                                     !- Rendering Blue Value

OS:ScheduleTypeLimits,
  {b6f88a4d-bf22-43a3-b246-6ed62150e420}, ! Handle
  Fraction,                               ! Name
  0,                                      ! Lower Limit Value
  1,                                      ! Upper Limit Value
  CONTINUOUS;                             ! Numeric Type

OS:DesignSpecification:OutdoorAir,
  {844b3b63-8a2e-41ca-bfe4-46b45ebb740c}, !- Handle
  189.1-2009 - SmHotel - Corridor - CZ4-8 Ventilation, !- Name
  Sum,                                    !- Outdoor Air Method
  ,                                       !- Outdoor Air Flow per Person {m3/s-person}
  0.000254,                               !- Outdoor Air Flow per Floor Area {m3/s-m2}
  ,                                       !- Outdoor Air Flow Rate {m3/s}
  ,                                       !- Outdoor Air Flow Air Changes per Hour {1/hr}
  ;                                       !- Outdoor Air Flow Rate Fraction Schedule Name

OS:ThermostatSetpoint:DualSetpoint,
  {90491fd6-4d4f-4ca9-99ca-36f92df6f008}, !- Handle
  189.1-2009 - SmHotel - Corridor - CZ4-8 Thermostat, !- Name
  ,                                       !- Heating Setpoint Temperature Schedule Name
  ;                                       !- Cooling Setpoint Temperature Schedule Name

OS:ScheduleTypeLimits,
  {6b5f6f36-6ddb-4b90-b463-52e469de24f8}, !- Handle
  Temperature 42,                         !- Name
  ,                                       !- Lower Limit Value
  ,                                       !- Upper Limit Value
  Continuous,                             !- Numeric Type
  Temperature;                            !- Unit Type

OS:ScheduleTypeLimits,
  {0cc7f0b5-971d-4681-a728-92200f7099c0}, !- Handle
  Temperature 35,                         !- Name
  ,                                       !- Lower Limit Value
  ,                                       !- Upper Limit Value
  Continuous,                             !- Numeric Type
  Temperature;                            !- Unit Type

OS:Rendering:Color,
  {917acd31-912b-4118-9674-606bcf5e4518}, !- Handle
  Rendering Color 2,                      !- Name
  154,                                    !- Rendering Red Value
  230,                                    !- Rendering Green Value
  120;                                    !- Rendering Blue Value

OS:DesignSpecification:OutdoorAir,
  {c4bd2d54-eb96-4b8e-8344-014597973825}, !- Handle
  189.1-2009 - SmHotel - Exercise - CZ4-8 Ventilation, !- Name
  Sum,                                    !- Outdoor Air Method
  0.009438948864,                         !- Outdoor Air Flow per Person {m3/s-person}
  ,                                       !- Outdoor Air Flow per Floor Area {m3/s-m2}
  ,                                       !- Outdoor Air Flow Rate {m3/s}
  ,                                       !- Outdoor Air Flow Air Changes per Hour {1/hr}
  ;                                       !- Outdoor Air Flow Rate Fraction Schedule Name

OS:ScheduleTypeLimits,
  {6c02063c-1241-4c30-a39d-973ef8e08f04}, !- Handle
  ActivityLevel,                          !- Name
  0,                                      !- Lower Limit Value
  ,                                       !- Upper Limit Value
  Continuous,                             !- Numeric Type
  ActivityLevel;                          !- Unit Type

OS:ThermostatSetpoint:DualSetpoint,
  {1f0b16d1-e393-4832-af55-ec5c5b081e53}, !- Handle
  189.1-2009 - SmHotel - Exercise - CZ4-8 Thermostat, !- Name
  ,                                       !- Heating Setpoint Temperature Schedule Name
  ;                                       !- Cooling Setpoint Temperature Schedule Name

OS:Rendering:Color,
  {dff742f6-a1c0-432b-83d4-2c1b6fb3979a}, !- Handle
  Rendering Color 3,                      !- Name
  230,                                    !- Rendering Red Value
  157,                                    !- Rendering Green Value
  120;                                    !- Rendering Blue Value

OS:DesignSpecification:OutdoorAir,
  {fe14fbde-1b4a-4303-8bda-5ccc04edc5d9}, !- Handle
  189.1-2009 - SmHotel - GuestLounge - CZ4-8 Ventilation, !- Name
  Sum,                                    !- Outdoor Air Method
  0.007079211648,                         !- Outdoor Air Flow per Person {m3/s-person}
  ,                                       !- Outdoor Air Flow per Floor Area {m3/s-m2}
  ,                                       !- Outdoor Air Flow Rate {m3/s}
  ,                                       !- Outdoor Air Flow Air Changes per Hour {1/hr}
  ;                                       !- Outdoor Air Flow Rate Fraction Schedule Name

OS:ThermostatSetpoint:DualSetpoint,
  {c6c08f60-6c86-4cef-aa43-1d071fb26157}, !- Handle
  189.1-2009 - SmHotel - GuestLounge - CZ4-8 Thermostat, !- Name
  ,                                       !- Heating Setpoint Temperature Schedule Name
  ;                                       !- Cooling Setpoint Temperature Schedule Name

OS:Rendering:Color,
  {a6865029-6672-4a0a-b92c-19beea3cc47b}, !- Handle
  Rendering Color 4,                      !- Name
  78,                                     !- Rendering Red Value
  167,                                    !- Rendering Green Value
  222;                                    !- Rendering Blue Value

OS:DesignSpecification:OutdoorAir,
  {a349c7aa-4961-41b0-b9f3-af86fe43062d}, !- Handle
  Living Rooms Ventilation,               !- Name
  ,                                       !- Outdoor Air Method
  0,                                      !- Outdoor Air Flow per Person {m3/s-person}
  ,                                       !- Outdoor Air Flow per Floor Area {m3/s-m2}
  0,                                      !- Outdoor Air Flow Rate {m3/s}
  0.11,                                   !- Outdoor Air Flow Air Changes per Hour {1/hr}
  ;                                       !- Outdoor Air Flow Rate Fraction Schedule Name

OS:ThermostatSetpoint:DualSetpoint,
  {8bd08275-0358-43f1-bc57-f2fe202ddfb9}, !- Handle
  189.1-2009 - SmHotel - GuestRoom - CZ4-8 Thermostat, !- Name
  ,                                       !- Heating Setpoint Temperature Schedule Name
  ;                                       !- Cooling Setpoint Temperature Schedule Name

OS:Rendering:Color,
  {ed40e511-e11f-4213-8750-d0a51932a448}, !- Handle
  Rendering Color 5,                      !- Name
  120,                                    !- Rendering Red Value
  149,                                    !- Rendering Green Value
  230;                                    !- Rendering Blue Value

OS:DesignSpecification:OutdoorAir,
  {256f0001-5798-4db9-832b-cdfc9ecabe8d}, !- Handle
  189.1-2009 - SmHotel - Laundry - CZ4-8 Ventilation, !- Name
  Sum,                                    !- Outdoor Air Method
  0.01179868608,                          !- Outdoor Air Flow per Person {m3/s-person}
  ,                                       !- Outdoor Air Flow per Floor Area {m3/s-m2}
  ,                                       !- Outdoor Air Flow Rate {m3/s}
  ,                                       !- Outdoor Air Flow Air Changes per Hour {1/hr}
  ;                                       !- Outdoor Air Flow Rate Fraction Schedule Name

OS:ThermostatSetpoint:DualSetpoint,
  {8068e3f5-bd1d-4045-a0fd-acedb33004bf}, !- Handle
  189.1-2009 - SmHotel - Laundry - CZ4-8 Thermostat, !- Name
  ,                                       !- Heating Setpoint Temperature Schedule Name
  ;                                       !- Cooling Setpoint Temperature Schedule Name

OS:Rendering:Color,
  {5740041f-61e5-4161-89fb-146b4334d0c0}, !- Handle
  Rendering Color 6,                      !- Name
  41,                                     !- Rendering Red Value
  31,                                     !- Rendering Green Value
  169;                                    !- Rendering Blue Value

OS:DesignSpecification:OutdoorAir,
  {2ebf3509-b2b2-494d-a7f5-999c662a3d99}, !- Handle
  189.1-2009 - SmHotel - Mechanical - CZ4-8 Ventilation, !- Name
  Sum,                                    !- Outdoor Air Method
  ,                                       !- Outdoor Air Flow per Person {m3/s-person}
  0.000254,                               !- Outdoor Air Flow per Floor Area {m3/s-m2}
  ,                                       !- Outdoor Air Flow Rate {m3/s}
  ,                                       !- Outdoor Air Flow Air Changes per Hour {1/hr}
  ;                                       !- Outdoor Air Flow Rate Fraction Schedule Name

OS:ThermostatSetpoint:DualSetpoint,
  {c25b0c1a-9c09-499c-aeb0-0868c78c8f02}, !- Handle
  189.1-2009 - SmHotel - Mechanical - CZ4-8 Thermostat, !- Name
  ,                                       !- Heating Setpoint Temperature Schedule Name
  ;                                       !- Cooling Setpoint Temperature Schedule Name

OS:Rendering:Color,
  {5d7572cd-8665-438c-9b4a-0445bc71d1ad}, !- Handle
  Rendering Color 7,                      !- Name
  230,                                    !- Rendering Red Value
  196,                                    !- Rendering Green Value
  120;                                    !- Rendering Blue Value

OS:DesignSpecification:OutdoorAir,
  {6409f329-03cd-479c-8f43-bbd98fc71f69}, !- Handle
  189.1-2009 - SmHotel - Meeting - CZ4-8 Ventilation, !- Name
  Sum,                                    !- Outdoor Air Method
  0.009438948864,                         !- Outdoor Air Flow per Person {m3/s-person}
  ,                                       !- Outdoor Air Flow per Floor Area {m3/s-m2}
  ,                                       !- Outdoor Air Flow Rate {m3/s}
  ,                                       !- Outdoor Air Flow Air Changes per Hour {1/hr}
  ;                                       !- Outdoor Air Flow Rate Fraction Schedule Name

OS:ThermostatSetpoint:DualSetpoint,
  {3ea4d023-6128-4751-9869-e585dc46d74a}, !- Handle
  189.1-2009 - SmHotel - Meeting - CZ4-8 Thermostat, !- Name
  ,                                       !- Heating Setpoint Temperature Schedule Name
  ;                                       !- Cooling Setpoint Temperature Schedule Name

OS:Rendering:Color,
  {b896b3a2-96f8-4fdd-a53d-5114f8e96aa4}, !- Handle
  Rendering Color 8,                      !- Name
  120,                                    !- Rendering Red Value
  230,                                    !- Rendering Green Value
  199;                                    !- Rendering Blue Value

OS:DesignSpecification:OutdoorAir,
  {dc7b22c9-203b-4495-9d1c-fca31aa40b3f}, !- Handle
  189.1-2009 - SmHotel - Office - CZ4-8 Ventilation, !- Name
  Sum,                                    !- Outdoor Air Method
  0.009438948864,                         !- Outdoor Air Flow per Person {m3/s-person}
  ,                                       !- Outdoor Air Flow per Floor Area {m3/s-m2}
  ,                                       !- Outdoor Air Flow Rate {m3/s}
  ,                                       !- Outdoor Air Flow Air Changes per Hour {1/hr}
  ;                                       !- Outdoor Air Flow Rate Fraction Schedule Name

OS:ThermostatSetpoint:DualSetpoint,
  {1948f2de-0424-49b3-a8f6-614ad6f05401}, !- Handle
  189.1-2009 - SmHotel - Office - CZ4-8 Thermostat, !- Name
  ,                                       !- Heating Setpoint Temperature Schedule Name
  ;                                       !- Cooling Setpoint Temperature Schedule Name

OS:Rendering:Color,
  {a8ea6034-2aa7-46e4-92fe-b4a82a0722c1}, !- Handle
  Rendering Color 9,                      !- Name
  169,                                    !- Rendering Red Value
  169,                                    !- Rendering Green Value
  31;                                     !- Rendering Blue Value

OS:DesignSpecification:OutdoorAir,
  {390e4614-a30f-4d44-8f84-aa495e6f1a47}, !- Handle
  189.1-2009 - SmHotel - PublicRestroom - CZ4-8 Ventilation, !- Name
  Sum,                                    !- Outdoor Air Method
  ,                                       !- Outdoor Air Flow per Person {m3/s-person}
  0.0048768,                              !- Outdoor Air Flow per Floor Area {m3/s-m2}
  ,                                       !- Outdoor Air Flow Rate {m3/s}
  ,                                       !- Outdoor Air Flow Air Changes per Hour {1/hr}
  ;                                       !- Outdoor Air Flow Rate Fraction Schedule Name

OS:ThermostatSetpoint:DualSetpoint,
  {bafb9a0e-3c9e-4b7d-a30b-3519f05fb470}, !- Handle
  189.1-2009 - SmHotel - PublicRestroom - CZ4-8 Thermostat, !- Name
  ,                                       !- Heating Setpoint Temperature Schedule Name
  ;                                       !- Cooling Setpoint Temperature Schedule Name

OS:Rendering:Color,
  {999c2063-45ca-46e5-9fa5-3d45029a091d}, !- Handle
  Rendering Color 10,                     !- Name
  31,                                     !- Rendering Red Value
  169,                                    !- Rendering Green Value
  34;                                     !- Rendering Blue Value

OS:DesignSpecification:OutdoorAir,
  {489f79c0-8ef1-45e4-906e-96f6d2109399}, !- Handle
  189.1-2009 - SmHotel - StaffLounge - CZ4-8 Ventilation, !- Name
  Sum,                                    !- Outdoor Air Method
  0.007079211648,                         !- Outdoor Air Flow per Person {m3/s-person}
  ,                                       !- Outdoor Air Flow per Floor Area {m3/s-m2}
  ,                                       !- Outdoor Air Flow Rate {m3/s}
  ,                                       !- Outdoor Air Flow Air Changes per Hour {1/hr}
  ;                                       !- Outdoor Air Flow Rate Fraction Schedule Name

OS:ThermostatSetpoint:DualSetpoint,
  {ea4ad6b6-8f06-4f4d-b1cb-be7099f06fef}, !- Handle
  189.1-2009 - SmHotel - StaffLounge - CZ4-8 Thermostat, !- Name
  ,                                       !- Heating Setpoint Temperature Schedule Name
  ;                                       !- Cooling Setpoint Temperature Schedule Name

OS:Rendering:Color,
  {5083e0b1-c0f7-4000-b964-45242f15ee88}, !- Handle
  Rendering Color 11,                     !- Name
  230,                                    !- Rendering Red Value
  157,                                    !- Rendering Green Value
  120;                                    !- Rendering Blue Value

OS:DesignSpecification:OutdoorAir,
  {1e1e822d-655c-4db7-854a-33767ef1feb8}, !- Handle
  189.1-2009 - SmHotel - Stair - CZ4-8 Ventilation, !- Name
  Sum,                                    !- Outdoor Air Method
  ,                                       !- Outdoor Air Flow per Person {m3/s-person}
  0.000254,                               !- Outdoor Air Flow per Floor Area {m3/s-m2}
  ,                                       !- Outdoor Air Flow Rate {m3/s}
  ,                                       !- Outdoor Air Flow Air Changes per Hour {1/hr}
  ;                                       !- Outdoor Air Flow Rate Fraction Schedule Name

OS:ThermostatSetpoint:DualSetpoint,
  {165596da-6ae5-4d4f-b9ca-08110255845f}, !- Handle
  189.1-2009 - SmHotel - Stair - CZ4-8 Thermostat, !- Name
  ,                                       !- Heating Setpoint Temperature Schedule Name
  ;                                       !- Cooling Setpoint Temperature Schedule Name

OS:Rendering:Color,
  {0d68a73f-8ffd-4a6e-b424-2925d5847bec}, !- Handle
  Rendering Color 12,                     !- Name
  120,                                    !- Rendering Red Value
  149,                                    !- Rendering Green Value
  230;                                    !- Rendering Blue Value

OS:DesignSpecification:OutdoorAir,
  {7be8e4b6-7d4a-447d-9848-8b6eec8e9d75}, !- Handle
  189.1-2009 - SmHotel - Storage - CZ4-8 Ventilation, !- Name
  Sum,                                    !- Outdoor Air Method
  ,                                       !- Outdoor Air Flow per Person {m3/s-person}
  0.000762,                               !- Outdoor Air Flow per Floor Area {m3/s-m2}
  ,                                       !- Outdoor Air Flow Rate {m3/s}
  ,                                       !- Outdoor Air Flow Air Changes per Hour {1/hr}
  ;                                       !- Outdoor Air Flow Rate Fraction Schedule Name

OS:ThermostatSetpoint:DualSetpoint,
  {f3b498bc-51e4-4faa-beba-40bdd1071104}, !- Handle
  189.1-2009 - SmHotel - Storage - CZ4-8 Thermostat, !- Name
  ,                                       !- Heating Setpoint Temperature Schedule Name
  ;                                       !- Cooling Setpoint Temperature Schedule Name

OS:Material,
  {1a9d7aeb-2ee1-47d9-83a8-66da68c1c381}, !- Handle
  Wall Insulation [39],                   !- Name
  MediumRough,                            !- Roughness
  0.1184,                                 !- Thickness {m}
  0.045,                                  !- Conductivity {W/m-K}
  265,                                    !- Density {kg/m3}
  836.800000000001,                       !- Specific Heat {J/kg-K}
  0.9,                                    !- Thermal Absorptance
  0.7,                                    !- Solar Absorptance
  0.7;                                    !- Visible Absorptance

OS:Material,
  {1644fae1-d8fa-4370-ad5d-7ee019a98e87}, !- Handle
  Roof Membrane,                          !- Name
  VeryRough,                              !- Roughness
  0.0095,                                 !- Thickness {m}
  0.16,                                   !- Conductivity {W/m-K}
  1121.29,                                !- Density {kg/m3}
  1460,                                   !- Specific Heat {J/kg-K}
  0.9,                                    !- Thermal Absorptance
  0.7,                                    !- Solar Absorptance
  0.7;                                    !- Visible Absorptance

OS:Material,
  {147e85cd-eff4-44b7-996d-f6193f250311}, !- Handle
  Roof Insulation [21],                   !- Name
  MediumRough,                            !- Roughness
  0.2105,                                 !- Thickness {m}
  0.049,                                  !- Conductivity {W/m-K}
  265,                                    !- Density {kg/m3}
  836.800000000001,                       !- Specific Heat {J/kg-K}
  0.9,                                    !- Thermal Absorptance
  0.7,                                    !- Solar Absorptance
  0.7;                                    !- Visible Absorptance

OS:Material,
  {33ae1f9a-bb2b-4e86-80b1-986c8a3bf72c}, !- Handle
  M11 100mm lightweight concrete,         !- Name
  MediumRough,                            !- Roughness
  0.1016,                                 !- Thickness {m}
  0.53,                                   !- Conductivity {W/m-K}
  1280,                                   !- Density {kg/m3}
  840.000000000002,                       !- Specific Heat {J/kg-K}
  0.9,                                    !- Thermal Absorptance
  0.5,                                    !- Solar Absorptance
  0.5;                                    !- Visible Absorptance

OS:Rendering:Color,
  {94bf59b5-e360-4da4-9a8f-f78c07d56498}, !- Handle
  Rendering Color 13,                     !- Name
  233,                                    !- Rendering Red Value
  150,                                    !- Rendering Green Value
  122;                                    !- Rendering Blue Value

OS:Rendering:Color,
  {d4c8faa2-bb51-4c01-b72b-e11d65d900a7}, !- Handle
  Rendering Color 14,                     !- Name
  255,                                    !- Rendering Red Value
  165,                                    !- Rendering Green Value
  0;                                      !- Rendering Blue Value

OS:Rendering:Color,
  {5a62ea01-95a4-4adb-b98e-ec3b92d7b898}, !- Handle
  Rendering Color 15,                     !- Name
  173,                                    !- Rendering Red Value
  255,                                    !- Rendering Green Value
  47;                                     !- Rendering Blue Value

OS:Rendering:Color,
  {60eb2ac9-6728-470d-a7b2-5683a9cf914a}, !- Handle
  Rendering Color 16,                     !- Name
  100,                                    !- Rendering Red Value
  149,                                    !- Rendering Green Value
  237;                                    !- Rendering Blue Value

OS:Rendering:Color,
  {5b4f8c50-f5a2-49b5-9ee0-62fe1c08141a}, !- Handle
  Rendering Color 17,                     !- Name